corvid/custom-example/gridlabd/oneline-right-w-gpk.glm
// Define the module
module powerflow {
    solver_method NR;
    default_maximum_voltage_error 1e-6;
    NR_iteration_limit 50;
};

module tape;
module connection;

// Define the clock settings
clock {
    timezone PST+8PDT;
    starttime '2025-02-21 00:00:00';  // Set an appropriate start time
    stoptime '2025-02-21 00:00:10';  // Run simulation for 10 seconds
};

// Define the power system base
object meter {
    name slack_bus;
    phases ABCN;
    nominal_voltage 69000;  // 69 kV base voltage
    bustype SWING;
    voltage_A 69000.0+0.0d;  // 69 kV, angle 0°
    voltage_B 69000.0-120.0d;  // 69 kV, -120°
    voltage_C 69000.0+120.0d;  // 69 kV, +120°
};

// Define the load bus
object load {
    name load_bus;
    phases ABCN;
    nominal_voltage 69000;
    constant_power_A 20.0e6+15.0e6j;
    constant_power_B 20.0e6+15.0e6j;
    constant_power_C 20.0e6+15.0e6j;
};

// Define transmission line parameters
object overhead_line {
    name line_2_3;
    from slack_bus;
    to load_bus;
    phases ABC;
    length 5280;
    configuration line_config;
};

// Define the line configuration with the given impedance
object line_configuration {
    name line_config;
    z11 0.25+1.0j;  // Impedance in Ohms per mile
    z12 0.0;
    z13 0.0;
    z21 0.0;
    z22 0.25+1.0j;
    z23 0.0;
    z31 0.0;
    z32 0.0;
    z33 0.25+1.0j;
};

// Add a recorder for voltage magnitude and phase at the center bus
object recorder {
    name voltage_recorder;
    parent slack_bus;
    property measured_voltage_A, measured_power_A, measured_current_A;
    interval 1;  // Record every second
    limit 20;  // Record for 10 seconds
    file "/beegfs/users/lwilliamson/repos/uncc_root/uncc-corvid/corvid/custom-example/outputs/gld_cosim_right.csv";  // Output file
};

// Connect to HELICS
object helics_msg {
    name gpk_gld_right_fed;
    configure /beegfs/users/lwilliamson/repos/uncc_root/uncc-corvid/corvid/custom-example/gridlabd/gpk-gld-right-fed.json;
};
